Circuit: * C:\Users\user\Desktop\Cybernet Corp\closetoorig.asc

Direct Newton iteration failed to find .op point.  (Use ".option noopiter" to skip.)
Starting Gmin stepping
Gmin = 10
Gmin = 1.07374
Gmin = 0.115292
Gmin = 0.0123794
Gmin = 0.00132923
Gmin = 0.000142725
Gmin = 1.5325e-005
Gmin = 1.6455e-006
Gmin = 1.76685e-007
Gmin = 1.89714e-008
Gmin = 2.03704e-009
Gmin = 2.18725e-010
Gmin = 2.34854e-011
Gmin = 2.52173e-012
Gmin = 2.70769e-013
Gmin = 0
Gmin stepping succeeded in finding the operating point.


Date: Wed Oct 09 00:32:08 2013
Total elapsed time: 1.649 seconds.

tnom = 27
temp = 27
method = modified trap
totiter = 2619
traniter = 2148
tranpoints = 1066
accept = 1061
rejected = 5
matrix size = 30
fillins = 31
solver = Normal
Thread vector: 126.4/76.3[2] 18.9/13.9[2] 15.6/11.4[2] 2.1/563.2[1]  2592/500
Matrix Compiler1: 3.78 KB object code size  3.7/3.0/[3.0]
Matrix Compiler2: off  [3.0]/5.0/9.8


