Circuit: * C:\Users\user\Desktop\Cybernet Corp\Neural pulse circuit schematic-approx2-1109.asc

WARNING: Node P006 is floating.

Direct Newton iteration for .op point succeeded.

Date: Wed Oct 09 00:31:19 2013
Total elapsed time: 0.132 seconds.

tnom = 27
temp = 27
method = modified trap
totiter = 2279
traniter = 2276
tranpoints = 1139
accept = 1116
rejected = 23
matrix size = 10
fillins = 0
solver = Normal
Matrix Compiler1: 418 bytes object code size  1.0/0.7/[0.5]
Matrix Compiler2: 680 bytes object code size  0.8/1.2/[0.7]


