Circuit: * C:\Users\user\Desktop\Cybernet Corp\neural pulse very_close_approx_!_10092.asc

Direct Newton iteration failed to find .op point.  (Use ".option noopiter" to skip.)
Starting Gmin stepping
Gmin = 10
Gmin = 1.07374
Gmin = 0.115292
Gmin = 0.0123794
Gmin = 0.00132923
Gmin = 0.000142725
Gmin = 1.5325e-005
Gmin = 1.6455e-006
Gmin = 1.76685e-007
Gmin = 1.89714e-008
Gmin = 2.03704e-009
Gmin = 2.18725e-010
Gmin = 2.34854e-011
Gmin = 2.52173e-012
Gmin = 2.70769e-013
Gmin = 0
Gmin stepping succeeded in finding the operating point.


Date: Wed Sep 11 14:01:08 2013
Total elapsed time: 0.839 seconds.

tnom = 27
temp = 27
method = modified trap
totiter = 2630
traniter = 2159
tranpoints = 1065
accept = 1062
rejected = 3
matrix size = 30
fillins = 31
solver = Normal
Thread vector: 182.8/120.1[2] 29.6/19.9[2] 18.3/10.7[2] 1.8/20.0[1]  2592/500
Matrix Compiler1: 3.78 KB object code size  5.9/4.5/[2.4]
Matrix Compiler2: off  [2.8]/5.2/9.9


