Circuit: * C:\Users\user\Desktop\Cybernet Corp\neural pulse very_close_approx_!.asc

Direct Newton iteration for .op point succeeded.

Date: Wed Oct 09 00:32:42 2013
Total elapsed time: 0.458 seconds.

tnom = 27
temp = 27
method = modified trap
totiter = 2151
traniter = 2137
tranpoints = 1060
accept = 1059
rejected = 1
matrix size = 15
fillins = 5
solver = Normal
Matrix Compiler1: 984 bytes object code size  1.4/0.9/[0.4]
Matrix Compiler2: off  [0.7]/1.2/1.9


